testData/tamu2000/pfcases_100_zone16/Equ_tx2000_hr_5329_mod_v23_zone16_pslf.raw
0  100.000 
THIS IS A SYNTHETIC POWER SYSTEM MODEL THAT DOES NOT REPRESE
DATA RESEARCH PROJECT AND CONTAINS NO CEII.
1033,  2,  195.963,  -48.701,  0.000,  0.000,  1,  1.00531,  -66.4657,  'MCCAMEY ',  230.00,  9
1048,  2,  91.796,  -4.987,  0.000,  0.000,  1,  1.00000,  -51.1169,  'MONAHANS',  18.000,  9
1049,  2,  63.772,  2.747,  0.000,  0.000,  1,  1.00000,  -45.4617,  'MONAHANS',  18.000,  9
1053,  2,  56.964,  -14.045,  0.000,  0.000,  1,  1.00660,  -61.6448,  'MONAHANS',  230.00,  9
1072,  3,  63.116,  -1.634,  0.000,  0.000,  1,  1.01000,  -57.8035,  'ODESSA 1',  18.000,  9
1073,  2,  35.513,  -3.686,  0.000,  0.000,  1,  1.01000,  -61.8283,  'ODESSA 1',  18.000,  9
1074,  2,  37.129,  -1.968,  0.000,  0.000,  1,  1.01000,  -62.0534,  'ODESSA 1',  18.000,  9
1075,  2,  45.347,  -2.515,  0.000,  0.000,  1,  1.01000,  -62.8583,  'ODESSA 1',  18.000,  9
1076,  2,  104.591,  -11.645,  0.000,  0.000,  1,  1.01000,  -64.4795,  'ODESSA 1',  18.000,  9
1077,  2,  38.212,  -2.363,  0.000,  0.000,  1,  1.01000,  -62.1789,  'ODESSA 1',  18.000,  9
1081,  2,  100.574,  -27.432,  0.000,  0.000,  1,  1.01030,  -63.7483,  'ODESSA 1',  230.00,  9
2001,  1,  0.000,  0.000,  0.000,  0.000,  2,  1.01884,  -70.2602,  'PARIS 3 ',  161.00,  11
2002,  1,  0.000,  0.000,  0.000,  0.000,  2,  1.02716,  -68.4128,  'SAVOY 0 ',  500.00,  11
2003,  1,  0.000,  0.000,  0.000,  0.000,  2,  1.02777,  -70.0607,  'SAVOY 1 ',  161.00,  11
2004,  2,  0.000,  0.000,  0.000,  0.000,  2,  1.02103,  -67.4661,  'SAVOY 2 ',  13.800,  11
2005,  2,  0.000,  0.000,  0.000,  0.000,  2,  1.02004,  -67.3031,  'SAVOY 3 ',  13.800,  11
2006,  2,  0.000,  0.000,  0.000,  0.000,  2,  1.02000,  -66.6851,  'SAVOY 4 ',  13.800,  11
2007,  1,  0.000,  0.000,  0.000,  0.000,  2,  1.02377,  -69.5779,  'HONEY GR',  161.00,  11
2009,  1,  -0.008,  -55.130,  0.000,  0.000,  2,  1.03000,  -68.7681,  'IOWA PAR',  161.00,  11
2013,  2,  9.317,  -10.231,  0.000,  0.000,  2,  1.04305,  -58.7034,  'PANHANDL',  18.000,  10
2015,  1,  0.000,  0.000,  0.000,  0.000,  2,  1.02671,  -73.5584,  'FORESTBU',  161.00,  11
2016,  1,  0.000,  0.000,  0.000,  0.000,  2,  1.02507,  -73.4429,  'SHERMAN ',  161.00,  11
2019,  2,  11.412,  33.483,  0.000,  0.000,  2,  1.04000,  -59.4728,  'PANHANDL',  20.000,  10
2020,  1,  0.000,  0.000,  0.000,  0.000,  2,  1.02032,  -67.7351,  'WICHITA ',  161.00,  11
2021,  1,  0.000,  0.000,  0.000,  0.000,  2,  1.02948,  -67.6378,  'PARIS 2 ',  500.00,  11
2022,  1,  0.000,  0.000,  0.000,  0.000,  2,  1.02482,  -69.2590,  'PARIS 2 ',  161.00,  11
2023,  2,  0.000,  0.000,  0.000,  0.000,  2,  1.02948,  -67.6378,  'PARIS 2 ',  13.800,  11
2024,  2,  0.000,  0.000,  0.000,  0.000,  2,  1.02522,  -66.9760,  'PARIS 2 ',  13.800,  11
2025,  1,  0.000,  0.000,  0.000,  0.000,  2,  1.01836,  -67.4833,  'WICHITA ',  161.00,  11
2027,  1,  0.000,  0.000,  0.000,  0.000,  2,  1.01844,  -70.6658,  'DEPORT 0',  161.00,  11
2028,  1,  0.000,  0.000,  0.000,  0.000,  2,  1.02199,  -68.7886,  'WICHITA ',  161.00,  11
2030,  1,  0.000,  0.000,  0.000,  0.000,  2,  1.01219,  -72.1879,  'BONHAM 0',  161.00,  11
2032,  1,  0.000,  0.000,  0.000,  0.000,  2,  1.02509,  -69.2232,  'ARTHUR C',  161.00,  11
2033,  1,  0.000,  0.000,  0.000,  0.000,  2,  1.00162,  -74.1750,  'LEONARD ',  161.00,  11
2034,  1,  0.000,  0.000,  0.000,  0.000,  2,  1.02711,  -73.0690,  'GORDONVI',  161.00,  11
2036,  1,  0.000,  0.000,  0.000,  0.000,  2,  1.02086,  -67.7434,  'WICHITA ',  161.00,  11
2037,  1,  0.000,  0.000,  0.000,  0.000,  2,  1.02936,  -73.6664,  'LINDSAY ',  161.00,  11
2038,  1,  0.000,  0.000,  0.000,  0.000,  2,  1.02454,  -70.7520,  'ECTOR 0 ',  161.00,  11
2039,  1,  0.000,  0.000,  0.000,  0.000,  2,  1.02098,  -72.7828,  'SUNSET 0',  161.00,  11
2040,  1,  0.000,  0.000,  0.000,  0.000,  2,  1.02387,  -69.7738,  'CLARKSVI',  161.00,  11
2042,  2,  9.078,  -1.063,  0.000,  0.000,  2,  1.02784,  -55.6777,  'PANHANDL',  18.000,  10
2043,  1,  0.000,  0.000,  0.000,  0.000,  2,  1.02623,  -73.2393,  'SADLER 0',  161.00,  11
2044,  1,  0.000,  0.000,  0.000,  0.000,  2,  1.02794,  -72.7209,  'WHITESBO',  161.00,  11
2045,  1,  0.000,  0.000,  0.000,  0.000,  2,  1.02047,  -67.9709,  'SHEPPARD',  161.00,  11
2046,  1,  0.000,  0.000,  0.000,  0.000,  2,  1.02820,  -72.8511,  'POTTSBOR',  161.00,  11
2047,  1,  0.000,  0.000,  0.000,  0.000,  2,  1.02787,  -70.5545,  'BELLS 0 ',  161.00,  11
2049,  1,  13.578,  -4.199,  0.000,  0.000,  2,  1.02815,  -68.3227,  'ELECTRA ',  161.00,  10
2050,  1,  0.000,  0.000,  0.000,  0.000,  2,  1.00166,  -73.5104,  'PATTONVI',  161.00,  11
2051,  1,  0.000,  0.000,  0.000,  0.000,  2,  1.02166,  -71.0672,  'HENRIETT',  161.00,  11
2053,  1,  0.000,  0.000,  0.000,  0.000,  2,  1.02153,  -71.4557,  'BOWIE 0 ',  161.00,  11
2054,  1,  0.000,  0.000,  0.000,  0.000,  2,  1.02040,  -66.8797,  'WICHITA ',  500.00,  11
2055,  1,  0.000,  0.000,  0.000,  0.000,  2,  1.02057,  -67.3327,  'WICHITA ',  161.00,  11
2056,  2,  0.000,  0.000,  0.000,  0.000,  2,  1.02040,  -66.8797,  'WICHITA ',  18.000,  11
2057,  3,  0.000,  0.000,  0.000,  0.000,  2,  0.99000,  -65.6055,  'WICHITA ',  18.000,  11
2059,  2,  3.820,  -1.106,  0.000,  0.000,  2,  1.02671,  -54.9787,  'WHITE DE',  13.800,  10
2060,  1,  0.000,  0.000,  0.000,  0.000,  2,  1.00393,  -72.5069,  'ROXTON 0',  161.00,  11
2062,  2,  17.469,  -5.426,  0.000,  0.000,  2,  1.02000,  -66.9369,  'VERNON 1',  18.000,  10
2063,  1,  -0.001,  -32.822,  0.000,  0.000,  2,  1.03000,  -72.5013,  'DENISON ',  161.00,  11
2064,  1,  0.000,  0.000,  0.000,  0.000,  2,  1.01435,  -70.8218,  'SUMNER 0',  161.00,  11
2065,  1,  -0.002,  -58.659,  0.000,  0.000,  2,  1.03000,  -74.1815,  'GAINESVI',  161.00,  11
2067,  1,  0.000,  0.000,  0.000,  0.000,  2,  1.01650,  -67.5608,  'WICHITA ',  161.00,  11
2068,  1,  0.000,  0.000,  0.000,  0.000,  2,  1.01599,  -66.9863,  'WINDTHOR',  161.00,  11
2069,  1,  -0.003,  -35.396,  0.000,  0.000,  2,  1.03000,  -73.0097,  'HOWE 0  ',  161.00,  11
2070,  1,  0.000,  0.000,  0.000,  0.000,  2,  1.01697,  -66.8184,  'ARCHER 2',  161.00,  11
2071,  1,  -28.112,  21.600,  0.000,  0.000,  2,  1.00494,  -65.9031,  'ARCHER 2',  18.000,  11
2072,  1,  0.000,  0.000,  0.000,  0.000,  2,  1.02961,  -71.9022,  'COLLINSV',  161.00,  11
2077,  1,  0.000,  0.000,  0.000,  0.000,  2,  1.02836,  -73.0264,  'MUENSTER',  161.00,  11
2078,  1,  -21.085,  12.426,  0.000,  0.000,  2,  1.01997,  -72.1905,  'MUENSTER',  13.800,  11
2080,  1,  0.000,  0.000,  0.000,  0.000,  2,  1.02320,  -72.0420,  'NOCONA 0',  161.00,  11
2081,  1,  0.000,  0.000,  0.000,  0.000,  2,  1.01875,  -71.9857,  'DODD CIT',  161.00,  11
2082,  1,  0.000,  0.000,  0.000,  0.000,  2,  1.02227,  -68.0804,  'WICHITA ',  161.00,  11
2083,  2,  0.000,  0.000,  0.000,  0.000,  2,  1.02227,  -68.0804,  'WICHITA ',  20.000,  11
2084,  2,  0.000,  0.000,  0.000,  0.000,  2,  1.02227,  -68.0804,  'WICHITA ',  20.000,  11
2085,  2,  0.000,  0.000,  0.000,  0.000,  2,  1.02227,  -68.0804,  'WICHITA ',  20.000,  11
2086,  1,  0.000,  0.000,  0.000,  0.000,  2,  1.02225,  -72.5115,  'MONTAGUE',  161.00,  11
2088,  1,  0.000,  0.000,  0.000,  0.000,  2,  1.01599,  -66.8851,  'ARCHER 1',  161.00,  11
2089,  1,  -12.669,  9.730,  0.000,  0.000,  2,  1.00417,  -65.9888,  'ARCHER 1',  24.000,  11
2090,  1,  0.000,  0.000,  0.000,  0.000,  2,  1.01650,  -71.3162,  'ANNONA 0',  161.00,  11
2092,  1,  0.000,  0.000,  0.000,  0.000,  2,  1.02819,  -71.5677,  'DENISON ',  161.00,  11
2095,  2,  9.630,  0.564,  0.000,  0.000,  2,  1.03139,  -57.2598,  'PANHANDL',  13.800,  10
2100,  2,  18.920,  11.950,  0.000,  0.000,  2,  1.02119,  -60.7598,  'RALLS 1 ',  18.000,  10
2101,  1,  0.000,  0.000,  0.000,  0.000,  2,  1.02826,  -69.0688,  'SHERMAN ',  500.00,  11
2102,  1,  0.000,  0.000,  0.000,  0.000,  2,  1.02971,  -70.1147,  'SHERMAN ',  161.00,  11
2103,  2,  0.000,  0.000,  0.000,  0.000,  2,  1.02473,  -68.5189,  'SHERMAN ',  20.000,  11
2104,  2,  0.000,  0.000,  0.000,  0.000,  2,  1.02359,  -68.3481,  'SHERMAN ',  20.000,  11
2105,  2,  0.000,  0.000,  0.000,  0.000,  2,  1.02096,  -67.9253,  'SHERMAN ',  20.000,  11
2106,  1,  0.000,  0.000,  0.000,  0.000,  2,  1.00672,  -73.7436,  'WHITEWRI',  161.00,  11
2107,  1,  0.000,  0.000,  0.000,  0.000,  2,  1.02821,  -70.5636,  'SHERMAN ',  161.00,  11
2109,  1,  0.000,  0.000,  0.000,  0.000,  2,  1.02633,  -68.8550,  'BURKBURN',  161.00,  11
2110,  1,  -0.001,  -17.426,  0.000,  0.000,  2,  1.03000,  -73.3145,  'MUENSTER',  161.00,  11
2111,  1,  0.000,  0.000,  0.000,  0.000,  2,  1.03356,  -69.6514,  'ARCHER C',  161.00,  11
2112,  1,  0.000,  0.000,  0.000,  0.000,  2,  1.02187,  -69.5063,  'PETROLIA',  161.00,  11
2113,  1,  0.000,  0.000,  0.000,  0.000,  2,  1.02983,  -67.4834,  'PARIS 1 ',  500.00,  11
2114,  1,  0.000,  0.000,  0.000,  0.000,  2,  1.02897,  -68.2432,  'PARIS 1 ',  161.00,  11
2115,  2,  0.000,  0.000,  0.000,  0.000,  2,  1.02213,  -65.2333,  'PARIS 1 ',  13.800,  11
2116,  2,  0.000,  0.000,  0.000,  0.000,  2,  1.02589,  -66.3166,  'PARIS 1 ',  13.800,  11
2117,  2,  0.000,  0.000,  0.000,  0.000,  2,  1.02027,  -64.8781,  'PARIS 1 ',  13.800,  11
2118,  2,  0.000,  0.000,  0.000,  0.000,  2,  1.01928,  -64.5934,  'PARIS 1 ',  13.800,  11
2119,  2,  0.000,  0.000,  0.000,  0.000,  2,  1.02499,  -66.0618,  'PARIS 1 ',  13.800,  11
2120,  2,  0.000,  0.000,  0.000,  0.000,  2,  1.01983,  -64.7066,  'PARIS 1 ',  13.800,  11
2121,  1,  0.000,  0.000,  0.000,  0.000,  2,  1.02189,  -70.3271,  'BAGWELL ',  161.00,  11
2122,  1,  0.000,  0.000,  0.000,  0.000,  2,  1.01940,  -70.4229,  'TELEPHON',  161.00,  11
2123,  2,  39.246,  -10.451,  0.000,  0.000,  2,  1.03594,  -56.9457,  'PANHANDL',  161.00,  10
2124,  1,  0.000,  0.000,  0.000,  0.000,  2,  1.00208,  -74.6170,  'VAN ALST',  161.00,  11
2125,  1,  0.000,  0.000,  0.000,  0.000,  2,  1.02437,  -72.3046,  'TIOGA 0 ',  161.00,  11
2126,  1,  0.000,  0.000,  0.000,  0.000,  2,  1.02616,  -74.2544,  'VALLEY V',  161.00,  11
2127,  2,  44.033,  142.072,  0.000,  0.000,  2,  1.05316,  -60.9594,  'MIAMI 0 ',  500.00,  10
2129,  1,  0.000,  0.000,  0.000,  0.000,  2,  1.00857,  -73.6879,  'TRENTON ',  161.00,  11
2133,  1,  0.000,  0.000,  0.000,  0.000,  2,  1.02755,  -72.8455,  'SAINT JO',  161.00,  11
3028,  2,  46.580,  2.348,  0.000,  0.000,  3,  1.04000,  -68.0362,  'ABILENE ',  18.000,  27
3045,  2,  26.932,  -0.722,  0.000,  0.000,  3,  1.04000,  -62.5407,  'SILVER 4',  13.800,  27
3048,  2,  431.942,  -586.494,  0.000,  0.000,  3,  1.05203,  -67.9719,  'ROSCOE 5',  500.00,  27
3055,  2,  49.944,  -1.842,  0.000,  0.000,  3,  1.04000,  -67.2865,  'WINGATE ',  13.800,  27
3056,  2,  27.013,  -0.106,  0.000,  0.000,  3,  1.04000,  -66.8370,  'WINGATE ',  13.800,  27
3057,  2,  27.760,  -0.402,  0.000,  0.000,  3,  1.04000,  -66.8647,  'WINGATE ',  13.800,  27
3081,  2,  7.444,  2.116,  0.000,  0.000,  3,  1.04000,  -65.1497,  'HERMLEIG',  20.000,  27
3084,  2,  14.411,  -0.815,  0.000,  0.000,  3,  1.00377,  -66.0308,  'MERKEL 1',  13.800,  27
3106,  3,  21.685,  -9.459,  0.000,  0.000,  3,  1.00000,  -74.1803,  'BUCHANAN',  13.200,  28
4026,  2,  214.081,  -15.592,  0.000,  0.000,  4,  1.03000,  -71.3518,  'CHRISTIN',  13.800,  20
4030,  3,  201.424,  -19.747,  0.000,  0.000,  4,  1.01000,  -63.4955,  'FANNIN 2',  13.800,  21
4058,  2,  25.800,  2.612,  0.000,  0.000,  4,  1.03000,  -81.8060,  'GREGORY ',  13.800,  21
4059,  2,  30.271,  2.496,  0.000,  0.000,  4,  1.03000,  -82.0212,  'GREGORY ',  13.800,  21
4060,  2,  18.301,  1.922,  0.000,  0.000,  4,  1.03000,  -81.2000,  'GREGORY ',  13.800,  21
4061,  2,  26.452,  2.674,  0.000,  0.000,  4,  1.03000,  -81.5623,  'GREGORY ',  13.800,  21
4062,  2,  21.504,  1.948,  0.000,  0.000,  4,  1.03000,  -81.1622,  'GREGORY ',  13.800,  21
4063,  2,  26.013,  2.968,  0.000,  0.000,  4,  1.03000,  -81.5314,  'GREGORY ',  13.800,  21
4082,  2,  57.620,  2.728,  0.000,  0.000,  4,  1.04000,  -85.2226,  'CORPUS C',  13.800,  21
4083,  2,  61.949,  2.693,  0.000,  0.000,  4,  1.04000,  -85.5228,  'CORPUS C',  13.800,  21
4084,  2,  110.650,  2.375,  0.000,  0.000,  4,  1.04000,  -87.1156,  'CORPUS C',  13.800,  21
4085,  2,  130.098,  2.464,  0.000,  0.000,  4,  1.04000,  -86.6603,  'CORPUS C',  13.800,  21
4105,  2,  101.829,  2.022,  0.000,  0.000,  4,  1.01000,  -86.6288,  'TAFT 2 1',  18.000,  21
4115,  2,  166.321,  -18.107,  0.000,  0.000,  4,  1.04000,  -90.1659,  'LAREDO 1',  13.800,  20
4116,  2,  158.103,  -18.633,  0.000,  0.000,  4,  1.04000,  -90.1123,  'LAREDO 1',  13.800,  20
4153,  2,  440.138,  -45.418,  0.000,  0.000,  4,  1.04000,  -94.2295,  'ARMSTRON',  18.000,  21
4160,  2,  106.050,  13.130,  0.000,  0.000,  4,  1.03000,  -83.4679,  'CORPUS C',  13.800,  21
4161,  2,  45.925,  6.847,  0.000,  0.000,  4,  1.03000,  -81.2777,  'CORPUS C',  13.800,  21
4162,  2,  46.476,  5.928,  0.000,  0.000,  4,  1.03000,  -81.3217,  'CORPUS C',  13.800,  21
4181,  2,  194.216,  -0.631,  0.000,  0.000,  4,  1.01961,  -82.2821,  'TAFT 1 0',  230.00,  21
4192,  2,  1269.130,  -30.207,  0.000,  0.000,  4,  1.02000,  -95.6539,  'BROWNSVI',  230.00,  19
5003,  1,  0.000,  0.000,  0.000,  0.000,  5,  1.02607,  -73.1252,  'GARLAND ',  161.00,  16
5004,  1,  0.000,  0.000,  0.000,  0.000,  5,  0.97855,  -77.4042,  'KERENS 0',  161.00,  14
5006,  1,  0.000,  0.000,  0.000,  0.000,  5,  1.02983,  -72.8567,  'DALLAS 2',  161.00,  16
5007,  1,  0.000,  0.000,  0.000,  0.000,  5,  1.02974,  -72.0676,  'DENTON 4',  161.00,  17
5009,  1,  0.000,  0.000,  0.000,  0.000,  5,  1.02801,  -73.7490,  'DALLAS 2',  161.00,  16
5010,  1,  0.000,  0.000,  0.000,  0.000,  5,  1.02942,  -72.9048,  'PLANO 2 ',  161.00,  16
5011,  1,  49.683,  4.140,  0.000,  0.000,  5,  0.97945,  -75.8970,  'THORNTON',  161.00,  13
5012,  1,  0.000,  0.000,  0.000,  0.000,  5,  1.02790,  -72.4123,  'DENTON 5',  161.00,  17
5014,  1,  0.000,  0.000,  0.000,  0.000,  5,  1.02349,  -73.3717,  'DECATUR ',  161.00,  17
5015,  1,  0.000,  0.000,  0.000,  0.000,  5,  1.03247,  -70.1330,  'KELLER 2',  500.00,  17
5016,  1,  0.000,  0.000,  0.000,  0.000,  5,  1.03069,  -71.9510,  'KELLER 2',  161.00,  17
5017,  1,  0.000,  0.000,  0.000,  0.000,  5,  1.01865,  -73.9219,  'PONDER 0',  161.00,  17
5021,  1,  0.000,  0.000,  0.000,  0.000,  5,  1.03075,  -70.3009,  'ALEDO 1 ',  500.00,  17
5022,  1,  0.000,  0.000,  0.000,  0.000,  5,  1.02814,  -72.3176,  'ALEDO 1 ',  161.00,  17
5023,  2,  0.000,  0.000,  0.000,  0.000,  5,  1.03075,  -70.3009,  'ALEDO 1 ',  13.800,  17
5025,  1,  25.871,  3.242,  0.000,  0.000,  5,  1.02529,  -71.1998,  'CLEBURNE',  161.00,  18
5026,  1,  0.000,  0.000,  0.000,  0.000,  5,  1.02454,  -73.2665,  'FORT WOR',  161.00,  17
5027,  1,  0.000,  0.000,  0.000,  0.000,  5,  1.02120,  -74.2773,  'FORT WOR',  161.00,  17
5028,  1,  0.000,  0.000,  0.000,  0.000,  5,  1.02832,  -72.7815,  'FORT WOR',  161.00,  17
5030,  1,  99.914,  24.077,  0.000,  0.000,  5,  1.01567,  -75.6880,  'SPRINGTO',  161.00,  12
5031,  1,  0.000,  0.000,  0.000,  0.000,  5,  1.01932,  -73.5403,  'PRINCETO',  161.00,  16
5032,  1,  0.000,  0.000,  0.000,  0.000,  5,  1.02384,  -73.1054,  'DALLAS 2',  161.00,  16
5033,  1,  0.000,  0.000,  0.000,  0.000,  5,  1.02787,  -70.0705,  'DALLAS 1',  500.00,  16
5034,  1,  0.000,  0.000,  0.000,  0.000,  5,  1.02578,  -71.4791,  'DALLAS 1',  161.00,  16
5035,  2,  0.000,  0.000,  0.000,  0.000,  5,  1.02787,  -70.0705,  'DALLAS 1',  13.200,  16
5036,  2,  0.000,  0.000,  0.000,  0.000,  5,  1.02787,  -70.0705,  'DALLAS 1',  13.200,  16
5037,  2,  0.000,  0.000,  0.000,  0.000,  5,  1.02379,  -68.5970,  'DALLAS 1',  13.200,  16
5038,  2,  0.000,  0.000,  0.000,  0.000,  5,  1.02359,  -68.5500,  'DALLAS 1',  13.200,  16
5039,  2,  0.000,  0.000,  0.000,  0.000,  5,  1.02613,  -69.4030,  'DALLAS 1',  13.200,  16
5040,  2,  0.000,  0.000,  0.000,  0.000,  5,  1.02242,  -68.0748,  'DALLAS 1',  13.200,  16
5041,  2,  0.000,  0.000,  0.000,  0.000,  5,  1.02421,  -68.6860,  'DALLAS 1',  13.200,  16
5042,  2,  0.000,  0.000,  0.000,  0.000,  5,  1.02323,  -68.4405,  'DALLAS 1',  13.200,  16
5043,  1,  0.000,  0.000,  0.000,  0.000,  5,  1.02103,  -73.6034,  'ROYSE CI',  161.00,  16
5044,  1,  0.000,  0.000,  0.000,  0.000,  5,  1.02061,  -73.3018,  'BOYD 0  ',  161.00,  17
5047,  1,  0.000,  0.000,  0.000,  0.000,  5,  1.02720,  -69.0655,  'MANSFIEL',  500.00,  17
5048,  1,  0.000,  0.000,  0.000,  0.000,  5,  1.02720,  -71.1695,  'MANSFIEL',  161.00,  17
5049,  1,  0.000,  0.000,  0.000,  0.000,  5,  1.03299,  -69.2608,  'GREENVIL',  500.00,  16
5050,  1,  0.000,  0.000,  0.000,  0.000,  5,  1.02654,  -72.1771,  'GREENVIL',  161.00,  16
5051,  2,  0.000,  0.000,  0.000,  0.000,  5,  1.03299,  -69.2608,  'GREENVIL',  22.000,  16
5052,  1,  0.000,  0.000,  0.000,  0.000,  5,  1.03123,  -71.1916,  'GREENVIL',  115.00,  16
5053,  1,  0.000,  0.000,  0.000,  0.000,  5,  1.02933,  -72.3878,  'PLANO 4 ',  161.00,  16
5054,  1,  0.000,  0.000,  0.000,  0.000,  5,  0.96295,  -78.0662,  'GROESBEC',  161.00,  14
5057,  2,  18.009,  -5.902,  0.000,  0.000,  5,  1.02875,  -65.9210,  'GRAHAM 2',  13.800,  12
5058,  2,  15.928,  -3.377,  0.000,  0.000,  5,  1.02637,  -65.1693,  'GRAHAM 3',  13.800,  12
5059,  1,  0.000,  0.000,  0.000,  0.000,  5,  1.01322,  -73.9930,  'MABANK 2',  161.00,  14
5060,  1,  0.000,  0.000,  0.000,  0.000,  5,  1.01884,  -74.9007,  'MABANK 2',  115.00,  14
5061,  1,  -0.001,  -19.004,  0.000,  0.000,  5,  1.03000,  -77.0025,  'MABANK 2',  115.00,  14
5062,  1,  0.000,  0.000,  0.000,  0.000,  5,  1.01527,  -78.9571,  'MABANK 2',  115.00,  14
5063,  1,  0.000,  0.000,  0.000,  0.000,  5,  1.03199,  -69.9883,  'ARLINGTO',  500.00,  17
5064,  1,  0.000,  0.000,  0.000,  0.000,  5,  1.03016,  -71.8175,  'ARLINGTO',  161.00,  17
5065,  2,  0.000,  0.000,  0.000,  0.000,  5,  1.03199,  -69.9883,  'ARLINGTO',  13.800,  17
5066,  2,  0.000,  0.000,  0.000,  0.000,  5,  1.03199,  -69.9883,  'ARLINGTO',  13.800,  17
5067,  2,  0.000,  0.000,  0.000,  0.000,  5,  1.03000,  -68.1568,  'ARLINGTO',  13.800,  17
5068,  2,  0.000,  0.000,  0.000,  0.000,  5,  1.03000,  -68.0644,  'ARLINGTO',  13.800,  17
5069,  2,  0.000,  0.000,  0.000,  0.000,  5,  1.03000,  -67.9415,  'ARLINGTO',  13.800,  17
5070,  1,  0.000,  0.000,  0.000,  0.000,  5,  1.02370,  -73.3865,  'DALLAS 4',  161.00,  17
5072,  1,  0.000,  0.000,  0.000,  0.000,  5,  1.02998,  -72.6159,  'DALLAS 1',  161.00,  16
5074,  1,  0.000,  0.000,  0.000,  0.000,  5,  1.02112,  -73.5758,  'PROSPER ',  161.00,  16
5076,  1,  0.000,  0.000,  0.000,  0.000,  5,  1.02213,  -74.9303,  'TERRELL ',  161.00,  16
5077,  1,  -0.001,  -24.579,  0.000,  0.000,  5,  1.03000,  -75.7272,  'TERRELL ',  115.00,  16
5078,  1,  0.000,  0.000,  0.000,  0.000,  5,  1.02933,  -71.9014,  'AUBREY 0',  161.00,  17
...
 0 /End of Bus data, Begin Generator data
1033,  '1',  36.735,  -40.030,  59.210,  -40.030,  1.00000,  0,  333.600,  0.00000,  1.00000,  0.00000,  0.00000,  1.00000,  1,  100.0,  278.000,  83.400
1048,  '1',  188.620,  -5.722,  165.530,  -36.100,  1.00000,  0,  390.240,  0.00000,  0.10170,  0.00000,  0.00000,  1.00000,  1,  100.0,  325.200,  97.560
1049,  '1',  188.620,  12.260,  165.530,  -36.100,  1.00000,  0,  390.240,  0.00000,  0.13490,  0.00000,  0.00000,  1.00000,  1,  100.0,  325.200,  97.560
1053,  '1',  53.640,  -19.850,  91.010,  -19.850,  1.00000,  0,  214.560,  0.00000,  0.16870,  0.00000,  0.00000,  1.00000,  1,  100.0,  178.800,  53.640
1072,  '1',  172.617,  -7.870,  97.800,  -21.330,  1.01000,  0,  230.560,  0.00000,  0.30820,  0.00000,  0.00000,  1.00000,  1,  100.0,  192.130,  57.640
1073,  '1',  57.640,  -9.976,  97.800,  -21.330,  1.01000,  0,  230.560,  0.00000,  0.19480,  0.00000,  0.00000,  1.00000,  1,  100.0,  192.130,  57.640
1074,  '1',  57.640,  -7.292,  97.800,  -21.330,  1.01000,  0,  230.560,  0.00000,  0.20960,  0.00000,  0.00000,  1.00000,  1,  100.0,  192.130,  57.640
1075,  '1',  57.640,  -8.859,  97.800,  -21.330,  1.01000,  0,  230.560,  0.00000,  0.12370,  0.00000,  0.00000,  1.00000,  1,  100.0,  192.130,  57.640
1076,  '1',  57.640,  -17.657,  97.800,  -21.330,  1.01000,  0,  230.560,  0.00000,  0.10660,  0.00000,  0.00000,  1.00000,  1,  100.0,  192.130,  57.640
1077,  '1',  57.640,  -7.984,  97.800,  -21.330,  1.01000,  0,  230.560,  0.00000,  0.15380,  0.00000,  0.00000,  1.00000,  1,  100.0,  192.130,  57.640
1081,  '1',  166.170,  -31.800,  145.830,  -31.800,  1.01000,  0,  343.800,  0.00000,  0.14960,  0.00000,  0.00000,  1.00000,  1,  100.0,  286.500,  85.950
2004,  '1',  117.540,  -43.490,  199.430,  -43.490,  1.02000,  0,  470.160,  0.00000,  0.10640,  0.00000,  0.00000,  1.00000,  1,  100.0,  391.800,  117.540
2005,  '1',  117.540,  -43.490,  199.430,  -43.490,  1.02000,  0,  470.160,  0.00000,  0.22750,  0.00000,  0.00000,  1.00000,  1,  100.0,  391.800,  117.540
2006,  '1',  117.540,  -27.059,  199.430,  -43.490,  1.02000,  0,  470.160,  0.00000,  0.20040,  0.00000,  0.00000,  1.00000,  1,  100.0,  391.800,  117.540
2013,  '1',  84.290,  -28.890,  42.730,  -28.890,  1.00000,  0,  240.720,  0.00000,  1.00000,  0.00000,  0.00000,  1.00000,  1,  100.0,  200.600,  60.180
2019,  '1',  138.866,  -11.927,  46.430,  -31.390,  1.04000,  0,  261.600,  0.00000,  1.00000,  0.00000,  0.00000,  1.00000,  1,  100.0,  218.000,  65.400
2023,  '1',  0.000,  15.439,  42.420,  -9.250,  1.02000,  0,  100.000,  0.00000,  0.29440,  0.00000,  0.00000,  1.00000,  0,  100.0,  83.330,  25.000
2024,  '1',  50.000,  -18.500,  84.830,  -18.500,  1.02000,  0,  200.000,  0.00000,  0.15080,  0.00000,  0.00000,  1.00000,  1,  100.0,  166.670,  50.000
2042,  '1',  40.597,  -11.460,  16.950,  -11.460,  1.01000,  0,  95.520,  0.00000,  1.00000,  0.00000,  0.00000,  1.00000,  1,  100.0,  79.600,  23.880
2056,  '1',  0.000,  0.000,  2.800,  -0.730,  0.99000,  0,  7.200,  0.00000,  0.24920,  0.00000,  0.00000,  1.00000,  0,  100.0,  6.000,  1.800
2057,  '1',  165.719,  -229.082,  335.520,  -87.840,  0.99000,  0,  864.000,  0.00000,  0.17700,  0.00000,  0.00000,  1.00000,  1,  100.0,  720.000,  216.000
2059,  '1',  38.220,  -11.520,  17.040,  -11.520,  1.00000,  0,  96.000,  0.00000,  1.00000,  0.00000,  0.00000,  1.00000,  1,  100.0,  80.000,  24.000
2062,  '1',  38.488,  -17.325,  28.840,  -19.500,  1.02000,  0,  162.480,  0.00000,  1.00000,  0.00000,  0.00000,  1.00000,  1,  100.0,  135.400,  40.620
2083,  '1',  0.000,  10.080,  10.180,  -2.220,  1.02000,  0,  24.000,  0.00000,  0.16410,  0.00000,  0.00000,  1.00000,  0,  100.0,  20.000,  6.000
2084,  '1',  0.000,  0.000,  10.180,  -2.220,  1.02000,  0,  24.000,  0.00000,  0.23120,  0.00000,  0.00000,  1.00000,  0,  100.0,  20.000,  6.000
2085,  '1',  0.000,  0.000,  20.360,  -4.440,  1.02000,  0,  48.000,  0.00000,  0.22690,  0.00000,  0.00000,  1.00000,  0,  100.0,  40.000,  12.000
2095,  '1',  44.540,  -11.450,  16.930,  -11.450,  1.00000,  0,  95.400,  0.00000,  1.00000,  0.00000,  0.00000,  1.00000,  1,  100.0,  79.500,  23.850
2100,  '1',  31.464,  -21.600,  31.950,  -21.600,  1.02000,  0,  180.000,  0.00000,  1.00000,  0.00000,  0.00000,  1.00000,  1,  100.0,  150.000,  45.000
2103,  '1',  80.320,  -29.720,  136.280,  -29.720,  1.00000,  0,  321.280,  0.00000,  0.33430,  0.00000,  0.00000,  1.00000,  1,  100.0,  267.730,  80.320
2104,  '1',  80.320,  -29.720,  136.280,  -29.720,  1.00000,  0,  321.280,  0.00000,  0.31470,  0.00000,  0.00000,  1.00000,  1,  100.0,  267.730,  80.320
2105,  '1',  80.320,  -29.720,  136.280,  -29.720,  1.00000,  0,  321.280,  0.00000,  0.14160,  0.00000,  0.00000,  1.00000,  1,  100.0,  267.730,  80.320
2115,  '1',  107.130,  -20.500,  94.020,  -20.500,  1.00000,  0,  221.660,  0.00000,  0.14250,  0.00000,  0.00000,  1.00000,  1,  100.0,  184.720,  55.410
2116,  '1',  107.130,  -20.500,  94.020,  -20.500,  1.00000,  0,  221.660,  0.00000,  0.18690,  0.00000,  0.00000,  1.00000,  1,  100.0,  184.720,  55.410
2117,  '1',  107.130,  -20.500,  94.020,  -20.500,  1.00000,  0,  221.660,  0.00000,  0.32540,  0.00000,  0.00000,  1.00000,  1,  100.0,  184.720,  55.410
2118,  '1',  107.130,  -20.500,  94.020,  -20.500,  1.00000,  0,  221.660,  0.00000,  0.10610,  0.00000,  0.00000,  1.00000,  1,  100.0,  184.720,  55.410
2119,  '1',  107.130,  -20.500,  94.020,  -20.500,  1.00000,  0,  221.660,  0.00000,  0.13600,  0.00000,  0.00000,  1.00000,  1,  100.0,  184.720,  55.410
2120,  '1',  107.130,  -20.500,  94.020,  -20.500,  1.01000,  0,  221.660,  0.00000,  0.20680,  0.00000,  0.00000,  1.00000,  1,  100.0,  184.720,  55.410
2123,  '1',  92.673,  -26.160,  38.700,  -26.160,  1.00000,  0,  218.040,  0.00000,  1.00000,  0.00000,  0.00000,  1.00000,  1,  100.0,  181.700,  54.510
2127,  '1',  123.297,  -41.560,  61.470,  -41.560,  1.04000,  0,  346.320,  0.00000,  1.00000,  0.00000,  0.00000,  1.00000,  1,  100.0,  288.600,  86.580
3028,  '1',  37.483,  -1.495,  42.600,  -28.800,  1.04000,  0,  240.000,  0.00000,  1.00000,  0.00000,  0.00000,  1.00000,  1,  100.0,  200.000,  60.000
3045,  '1',  134.100,  -1.510,  227.520,  -49.620,  1.04000,  0,  536.400,  0.00000,  0.14470,  0.00000,  0.00000,  1.00000,  1,  100.0,  447.000,  134.100
3048,  '1',  31.846,  -34.700,  51.330,  -34.700,  1.04000,  0,  289.200,  0.00000,  1.00000,  0.00000,  0.00000,  1.00000,  1,  100.0,  241.000,  72.300
3055,  '1',  32.398,  2.259,  52.220,  -35.300,  1.04000,  0,  294.200,  0.00000,  1.00000,  0.00000,  0.00000,  1.00000,  1,  100.0,  245.170,  73.550
3056,  '1',  32.398,  1.192,  52.220,  -35.300,  1.04000,  0,  294.200,  0.00000,  1.00000,  0.00000,  0.00000,  1.00000,  1,  100.0,  245.170,  73.550
3057,  '1',  32.398,  0.893,  52.220,  -35.300,  1.04000,  0,  294.200,  0.00000,  1.00000,  0.00000,  0.00000,  1.00000,  1,  100.0,  245.170,  73.550
3081,  '1',  32.903,  -1.119,  53.040,  -35.860,  1.04000,  0,  298.800,  0.00000,  1.00000,  0.00000,  0.00000,  1.00000,  1,  100.0,  249.000,  74.700
3084,  '1',  30.722,  -33.480,  49.520,  -33.480,  1.00000,  0,  279.000,  0.00000,  1.00000,  0.00000,  0.00000,  1.00000,  1,  100.0,  232.500,  69.750
3106,  '1',  -0.236,  -14.214,  62.477,  -2.690,  1.00000,  0,  65.880,  0.00000,  0.29220,  0.00000,  0.00000,  1.00000,  1,  100.0,  162.800,  0.000
4026,  '1',  123.000,  9.769,  191.060,  -50.020,  1.03000,  0,  492.000,  0.00000,  0.32770,  0.00000,  0.00000,  1.00000,  1,  100.0,  410.000,  123.000
4030,  '1',  187.091,  -1.943,  290.040,  -75.930,  1.01000,  0,  746.880,  0.00000,  0.27970,  0.00000,  0.00000,  1.00000,  1,  100.0,  622.400,  186.720
4058,  '1',  43.200,  9.948,  73.300,  -15.980,  1.03000,  0,  172.800,  0.00000,  0.13700,  0.00000,  0.00000,  1.00000,  1,  100.0,  144.000,  43.200
4059,  '1',  43.200,  11.049,  73.300,  -15.980,  1.03000,  0,  172.800,  0.00000,  0.15140,  0.00000,  0.00000,  1.00000,  1,  100.0,  144.000,  43.200
4060,  '1',  43.200,  6.884,  73.300,  -15.980,  1.03000,  0,  172.800,  0.00000,  0.13940,  0.00000,  0.00000,  1.00000,  1,  100.0,  144.000,  43.200
4061,  '1',  51.700,  9.996,  87.720,  -19.130,  1.03000,  0,  206.800,  0.00000,  0.21560,  0.00000,  0.00000,  1.00000,  1,  100.0,  172.330,  51.700
4062,  '1',  51.700,  7.319,  87.720,  -19.130,  1.03000,  0,  206.800,  0.00000,  0.25930,  0.00000,  0.00000,  1.00000,  1,  100.0,  172.330,  51.700
4063,  '1',  51.700,  10.485,  87.720,  -19.130,  1.03000,  0,  206.800,  0.00000,  0.14410,  0.00000,  0.00000,  1.00000,  1,  100.0,  172.330,  51.700
4082,  '1',  141.170,  17.875,  123.890,  -27.020,  1.04000,  0,  292.080,  0.00000,  0.13810,  0.00000,  0.00000,  1.00000,  1,  100.0,  243.400,  73.020
4083,  '1',  141.170,  18.939,  123.890,  -27.020,  1.04000,  0,  292.080,  0.00000,  0.15700,  0.00000,  0.00000,  1.00000,  1,  100.0,  243.400,  73.020
4084,  '1',  141.170,  33.196,  123.890,  -27.020,  1.04000,  0,  292.080,  0.00000,  0.19110,  0.00000,  0.00000,  1.00000,  1,  100.0,  243.400,  73.020
4085,  '1',  204.160,  37.643,  179.170,  -39.070,  1.04000,  0,  422.400,  0.00000,  0.31920,  0.00000,  0.00000,  1.00000,  1,  100.0,  352.000,  105.600
4105,  '1',  33.735,  -8.938,  38.340,  -25.920,  1.01000,  0,  216.000,  0.00000,  1.00000,  0.00000,  0.00000,  1.00000,  1,  100.0,  180.000,  54.000
4115,  '1',  39.540,  21.970,  67.090,  -14.630,  1.04000,  0,  158.160,  0.00000,  0.11310,  0.00000,  0.00000,  1.00000,  1,  100.0,  131.800,  39.540
4116,  '1',  39.540,  20.495,  67.090,  -14.630,  1.04000,  0,  158.160,  0.00000,  0.15150,  0.00000,  0.00000,  1.00000,  1,  100.0,  131.800,  39.540
4153,  '1',  37.422,  57.369,  60.320,  -40.780,  1.04000,  0,  339.840,  0.00000,  1.00000,  0.00000,  0.00000,  1.00000,  1,  100.0,  283.200,  84.960
4160,  '1',  114.710,  25.579,  100.660,  -21.950,  1.03000,  0,  237.320,  0.00000,  0.18820,  0.00000,  0.00000,  1.00000,  1,  100.0,  197.770,  59.330
4161,  '1',  114.710,  12.860,  100.660,  -21.950,  1.03000,  0,  237.320,  0.00000,  0.12390,  0.00000,  0.00000,  1.00000,  1,  100.0,  197.770,  59.330
4162,  '1',  114.710,  10.558,  100.660,  -21.950,  1.03000,  0,  237.320,  0.00000,  0.17220,  0.00000,  0.00000,  1.00000,  1,  100.0,  197.770,  59.330
4181,  '1',  37.500,  42.620,  42.620,  -28.810,  1.04000,  0,  240.120,  0.00000,  1.00000,  0.00000,  0.00000,  1.00000,  1,  100.0,  200.100,  60.030
4192,  '1',  784.350,  18.635,  688.320,  -150.120,  1.02000,  0,  1622.76,  0.00000,  0.14340,  0.00000,  0.00000,  1.00000,  1,  100.0,  1352.31,  405.690
5023,  '1',  0.000,  0.000,  2.440,  -0.530,  1.04000,  0,  5.760,  0.00000,  0.15290,  0.00000,  0.00000,  1.00000,  0,  100.0,  4.800,  1.440
5035,  '1',  0.000,  0.000,  2.140,  -0.470,  1.02000,  0,  5.040,  0.00000,  0.14180,  0.00000,  0.00000,  1.00000,  0,  100.0,  4.200,  1.260
5036,  '1',  0.000,  3.260,  3.260,  -0.710,  1.02000,  0,  7.680,  0.00000,  0.14370,  0.00000,  0.00000,  1.00000,  0,  100.0,  6.400,  1.920
5037,  '1',  222.100,  -34.240,  157.010,  -34.240,  1.02000,  0,  370.160,  0.00000,  0.29910,  0.00000,  0.00000,  1.00000,  1,  100.0,  308.470,  92.540
5038,  '1',  222.100,  -34.240,  157.010,  -34.240,  1.02000,  0,  370.160,  0.00000,  0.12330,  0.00000,  0.00000,  1.00000,  1,  100.0,  308.470,  92.540
5039,  '1',  222.100,  -34.240,  157.010,  -34.240,  1.02000,  0,  370.160,  0.00000,  0.21470,  0.00000,  0.00000,  1.00000,  1,  100.0,  308.470,  92.540
5040,  '1',  222.100,  -34.240,  157.010,  -34.240,  1.02000,  0,  370.160,  0.00000,  0.19240,  0.00000,  0.00000,  1.00000,  1,  100.0,  308.470,  92.540
5041,  '1',  222.100,  -34.240,  157.010,  -34.240,  1.02000,  0,  370.160,  0.00000,  0.11590,  0.00000,  0.00000,  1.00000,  1,  100.0,  308.470,  92.540
5042,  '1',  222.100,  -34.240,  157.010,  -34.240,  1.02000,  0,  370.160,  0.00000,  0.19130,  0.00000,  0.00000,  1.00000,  1,  100.0,  308.470,  92.540
5051,  '1',  0.000,  43.110,  43.110,  -9.400,  1.02000,  0,  101.640,  0.00000,  0.12480,  0.00000,  0.00000,  1.00000,  0,  100.0,  84.700,  25.410
5057,  '1',  228.450,  -35.230,  161.530,  -35.230,  1.00000,  0,  380.820,  0.00000,  0.19130,  0.00000,  0.00000,  1.00000,  1,  100.0,  317.350,  95.200
5058,  '1',  228.490,  -35.230,  161.530,  -35.230,  1.00000,  0,  380.820,  0.00000,  0.29820,  0.00000,  0.00000,  1.00000,  1,  100.0,  317.350,  95.200
5065,  '1',  0.000,  5.400,  5.400,  -1.180,  1.03000,  0,  12.720,  0.00000,  0.13710,  0.00000,  0.00000,  1.00000,  0,  100.0,  10.600,  3.180
5066,  '1',  0.000,  0.920,  0.920,  -0.200,  1.03000,  0,  2.160,  0.00000,  0.13100,  0.00000,  0.00000,  1.00000,  0,  100.0,  1.800,  0.540
5067,  '1',  315.550,  -17.209,  223.080,  -48.650,  1.03000,  0,  525.920,  0.00000,  0.32610,  0.00000,  0.00000,  1.00000,  1,  100.0,  438.270,  131.480
5068,  '1',  315.550,  -17.564,  223.080,  -48.650,  1.03000,  0,  525.920,  0.00000,  0.11690,  0.00000,  0.00000,  1.00000,  1,  100.0,  438.270,  131.480
5069,  '1',  315.550,  -16.905,  223.080,  -48.650,  1.03000,  0,  525.920,  0.00000,  0.10560,  0.00000,  0.00000,  1.00000,  1,  100.0,  438.270,  131.480
5106,  '1',  0.000,  0.000,  5.030,  -1.320,  1.04000,  0,  12.960,  0.00000,  0.31910,  0.00000,  0.00000,  1.00000,  0,  100.0,  10.800,  3.240
5107,  '1',  0.000,  0.000,  2.660,  -0.700,  1.04000,  0,  6.840,  0.00000,  0.27550,  0.00000,  0.00000,  1.00000,  0,  100.0,  5.700,  1.710
5166,  '1',  37.950,  16.175,  64.390,  -14.040,  1.04000,  0,  151.800,  0.00000,  0.13910,  0.00000,  0.00000,  1.00000,  1,  100.0,  126.500,  37.950
5167,  '1',  0.000,  0.810,  0.810,  -0.180,  1.04000,  0,  1.920,  0.00000,  0.10670,  0.00000,  0.00000,  1.00000,  0,  100.0,  1.600,  0.480
5206,  '1',  144.230,  -27.600,  126.570,  -27.600,  1.01000,  0,  298.400,  0.00000,  0.11980,  0.00000,  0.00000,  1.00000,  1,  100.0,  248.670,  74.600
5207,  '1',  144.230,  -27.600,  126.570,  -27.600,  1.01000,  0,  298.400,  0.00000,  0.18090,  0.00000,  0.00000,  1.00000,  1,  100.0,  248.670,  74.600
5208,  '1',  144.230,  -27.600,  126.570,  -27.600,  1.01000,  0,  298.400,  0.00000,  0.10560,  0.00000,  0.00000,  1.00000,  1,  100.0,  248.670,  74.600
5238,  '1',  42.168,  -32.400,  47.930,  -32.400,  1.00000,  0,  270.000,  0.00000,  1.00000,  0.00000,  0.00000,  1.00000,  1,  100.0,  225.000,  67.500
5262,  '1',  1215.000,  -99.630,  447.120,  -99.630,  1.01000,  0,  1458.00,  0.00000,  0.26310,  0.00000,  0.00000,  1.00000,  1,  100.0,  1215.00,  364.500
5263,  '1',  1215.000,  -99.630,  447.120,  -99.630,  1.01000,  0,  1458.00,  0.00000,  0.16260,  0.00000,  0.00000,  1.00000,  1,  100.0,  1215.00,  364.500
5281,  '1',  80.320,  -29.720,  136.280,  -29.720,  1.00000,  0,  321.280,  0.00000,  0.10660,  0.00000,  0.00000,  1.00000,  1,  100.0,  267.730,  80.320
5282,  '1',  80.320,  -29.720,  136.280,  -29.720,  1.00000,  0,  321.280,  0.00000,  0.23940,  0.00000,  0.00000,  1.00000,  1,  100.0,  267.730,  80.320
5283,  '1',  80.320,  -29.720,  136.280,  -29.720,  1.00000,  0,  321.280,  0.00000,  0.10650,  0.00000,  0.00000,  1.00000,  1,  100.0,  267.730,  80.320
5297,  '1',  0.000,  0.000,  1.630,  -0.360,  1.04000,  0,  3.840,  0.00000,  0.19100,  0.00000,  0.00000,  1.00000,  0,  100.0,  3.200,  0.960
5298,  '1',  34.500,  56.590,  58.530,  -12.760,  1.04000,  0,  138.000,  0.00000,  0.13260,  0.00000,  0.00000,  1.00000,  1,  100.0,  115.000,  34.500
5299,  '1',  34.500,  27.355,  58.530,  -12.760,  1.04000,  0,  138.000,  0.00000,  0.32280,  0.00000,  0.00000,  1.00000,  1,  100.0,  115.000,  34.500
5300,  '1',  34.500,  33.013,  58.530,  -12.760,  1.04000,  0,  138.000,  0.00000,  0.21910,  0.00000,  0.00000,  1.00000,  1,  100.0,  115.000,  34.500
5301,  '1',  0.000,  42.090,  42.090,  -9.180,  1.04000,  0,  99.240,  0.00000,  0.19640,  0.00000,  0.00000,  1.00000,  0,  100.0,  82.700,  24.810
5302,  '1',  139.130,  34.195,  236.050,  -51.480,  1.04000,  0,  556.500,  0.00000,  0.13300,  0.00000,  0.00000,  1.00000,  1,  100.0,  463.750,  139.130
5303,  '1',  139.130,  46.284,  236.050,  -51.480,  1.04000,  0,  556.500,  0.00000,  0.17920,  0.00000,  0.00000,  1.00000,  1,  100.0,  463.750,  139.130
5319,  '1',  78.840,  -29.170,  133.770,  -29.170,  1.01000,  0,  315.360,  0.00000,  0.25070,  0.00000,  0.00000,  1.00000,  1,  100.0,  262.800,  78.840
5320,  '1',  78.840,  -29.170,  133.770,  -29.170,  1.01000,  0,  315.360,  0.00000,  0.28140,  0.00000,  0.00000,  1.00000,  1,  100.0,  262.800,  78.840
5321,  '1',  78.840,  -29.170,  133.770,  -29.170,  1.01000,  0,  315.360,  0.00000,  0.12810,  0.00000,  0.00000,  1.00000,  1,  100.0,  262.800,  78.840
5324,  '1',  204.530,  36.712,  144.590,  -31.530,  1.04000,  0,  340.880,  0.00000,  0.21670,  0.00000,  0.00000,  1.00000,  1,  100.0,  284.070,  85.220
5325,  '1',  204.530,  38.190,  144.590,  -31.530,  1.04000,  0,  340.880,  0.00000,  0.15030,  0.00000,  0.00000,  1.00000,  1,  100.0,  284.070,  85.220
5326,  '1',  204.530,  103.152,  144.590,  -31.530,  1.04000,  0,  340.880,  0.00000,  0.18810,  0.00000,  0.00000,  1.00000,  1,  100.0,  284.070,  85.220
5360,  '1',  254.824,  -146.993,  469.730,  -122.980,  1.01000,  0,  1209.60,  0.00000,  0.25510,  0.00000,  0.00000,  1.00000,  1,  100.0,  1008.00,  302.400
5364,  '1',  123.730,  -23.680,  108.590,  -23.680,  1.00000,  0,  256.000,  0.00000,  0.13030,  0.00000,  0.00000,  1.00000,  1,  100.0,  213.330,  64.000
5365,  '1',  123.730,  -23.680,  108.590,  -23.680,  1.00000,  0,  256.000,  0.00000,  0.11650,  0.00000,  0.00000,  1.00000,  1,  100.0,  213.330,  64.000
5366,  '1',  123.730,  -23.680,  108.590,  -23.680,  1.00000,  0,  256.000,  0.00000,  0.15490,  0.00000,  0.00000,  1.00000,  1,  100.0,  213.330,  64.000
5367,  '1',  123.730,  -23.680,  108.590,  -23.680,  1.00000,  0,  256.000,  0.00000,  0.10020,  0.00000,  0.00000,  1.00000,  1,  100.0,  213.330,  64.000
5368,  '1',  123.730,  -23.680,  108.590,  -23.680,  1.00000,  0,  256.000,  0.00000,  0.36180,  0.00000,  0.00000,  1.00000,  1,  100.0,  213.330,  64.000
5369,  '1',  123.730,  -23.680,  108.590,  -23.680,  1.00000,  0,  256.000,  0.00000,  0.24440,  0.00000,  0.00000,  1.00000,  1,  100.0,  213.330,  64.000
5382,  '1',  150.480,  64.274,  106.380,  -23.200,  1.04000,  0,  250.800,  0.00000,  0.24770,  0.00000,  0.00000,  1.00000,  1,  100.0,  209.000,  62.700
5383,  '1',  150.480,  56.628,  106.380,  -23.200,  1.04000,  0,  250.800,  0.00000,  0.39820,  0.00000,  0.00000,  1.00000,  1,  100.0,  209.000,  62.700
5399,  '1',  31.036,  -23.850,  35.270,  -23.850,  1.04000,  0,  198.720,  0.00000,  1.00000,  0.00000,  0.00000,  1.00000,  1,  100.0,  165.600,  49.680
5415,  '1',  36.600,  -13.540,  62.100,  -13.540,  1.00000,  0,  146.400,  0.00000,  0.14030,  0.00000,  0.00000,  1.00000,  1,  100.0,  122.000,  36.600
5416,  '1',  36.600,  -13.540,  62.100,  -13.540,  1.00000,  0,  146.400,  0.00000,  0.26480,  0.00000,  0.00000,  1.00000,  1,  100.0,  122.000,  36.600
5417,  '1',  36.600,  -13.540,  62.100,  -13.540,  1.00000,  0,  146.400,  0.00000,  0.16960,  0.00000,  0.00000,  1.00000,  1,  100.0,  122.000,  36.600
5418,  '1',  35.640,  -13.190,  60.470,  -13.190,  1.00000,  0,  142.560,  0.00000,  0.34000,  0.00000,  0.00000,  1.00000,  1,  100.0,  118.800,  35.640
5419,  '1',  35.640,  -13.190,  60.470,  -13.190,  1.00000,  0,  142.560,  0.00000,  0.16420,  0.00000,  0.00000,  1.00000,  1,  100.0,  118.800,  35.640
5423,  '1',  0.000,  -1.380,  6.310,  -1.380,  1.00000,  0,  14.880,  0.00000,  0.12320,  0.00000,  0.00000,  1.00000,  0,  100.0,  12.400,  3.720
5424,  '1',  0.000,  0.000,  1.630,  -0.360,  1.00000,  0,  3.840,  0.00000,  0.18820,  0.00000,  0.00000,  1.00000,  0,  100.0,  3.200,  0.960
5444,  '1',  604.980,  -223.840,  1026.440,  -223.840,  1.01000,  0,  2419.92,  0.00000,  0.34260,  0.00000,  0.00000,  1.00000,  1,  100.0,  2016.60,  604.980
6006,  '1',  123.540,  6.929,  108.420,  -23.640,  1.04000,  0,  255.600,  0.00000,  0.18770,  0.00000,  0.00000,  1.00000,  1,  100.0,  213.000,  63.900
6007,  '1',  306.720,  11.973,  216.830,  -47.290,  1.04000,  0,  511.200,  0.00000,  0.13420,  0.00000,  0.00000,  1.00000,  1,  100.0,  426.000,  127.800
6008,  '1',  115.030,  6.625,  100.950,  -22.010,  1.04000,  0,  238.000,  0.00000,  0.20160,  0.00000,  0.00000,  1.00000,  1,  100.0,  198.330,  59.500
6009,  '1',  115.030,  4.243,  100.950,  -22.010,  1.04000,  0,  238.000,  0.00000,  0.18430,  0.00000,  0.00000,  1.00000,  1,  100.0,  198.330,  59.500
6010,  '1',  115.030,  4.933,  100.950,  -22.010,  1.04000,  0,  238.000,  0.00000,  0.15620,  0.00000,  0.00000,  1.00000,  1,  100.0,  198.330,  59.500
6069,  '1',  88.464,  -13.267,  92.320,  -20.130,  1.03000,  0,  217.640,  0.00000,  0.22480,  0.00000,  0.00000,  1.00000,  1,  100.0,  181.370,  54.410
6070,  '1',  54.410,  -5.373,  92.320,  -20.130,  1.03000,  0,  217.640,  0.00000,  0.24660,  0.00000,  0.00000,  1.00000,  1,  100.0,  181.370,  54.410
6071,  '1',  105.190,  -16.090,  92.320,  -20.130,  1.03000,  0,  217.640,  0.00000,  0.15280,  0.00000,  0.00000,  1.00000,  1,  100.0,  181.370,  54.410
6072,  '1',  105.190,  -5.920,  92.320,  -20.130,  1.03000,  0,  217.640,  0.00000,  0.19250,  0.00000,  0.00000,  1.00000,  1,  100.0,  181.370,  54.410
6073,  '1',  54.410,  -9.704,  92.320,  -20.130,  1.03000,  0,  217.640,  0.00000,  0.14260,  0.00000,  0.00000,  1.00000,  1,  100.0,  181.370,  54.410
6074,  '1',  54.410,  -10.130,  92.320,  -20.130,  1.03000,  0,  217.640,  0.00000,  0.11150,  0.00000,  0.00000,  1.00000,  1,  100.0,  181.370,  54.410
6078,  '1',  169.000,  -68.730,  262.510,  -68.730,  1.00000,  0,  676.000,  0.00000,  0.28900,  0.00000,  0.00000,  1.00000,  1,  100.0,  563.330,  169.000
6079,  '1',  169.000,  -68.730,  262.510,  -68.730,  1.00000,  0,  676.000,  0.00000,  0.25330,  0.00000,  0.00000,  1.00000,  1,  100.0,  563.330,  169.000
6080,  '1',  169.000,  -68.730,  262.510,  -68.730,  1.00000,  0,  676.000,  0.00000,  0.32510,  0.00000,  0.00000,  1.00000,  1,  100.0,  563.330,  169.000
6106,  '1',  36.300,  61.590,  61.590,  -13.430,  1.04000,  0,  145.200,  0.00000,  0.12010,  0.00000,  0.00000,  1.00000,  1,  100.0,  121.000,  36.300
6110,  '1',  177.180,  17.726,  275.220,  -72.050,  1.04000,  0,  708.720,  0.00000,  0.16800,  0.00000,  0.00000,  1.00000,  1,  100.0,  590.600,  177.180
6111,  '1',  198.450,  18.146,  308.260,  -80.700,  1.04000,  0,  793.800,  0.00000,  0.21900,  0.00000,  0.00000,  1.00000,  1,  100.0,  661.500,  198.450
6145,  '1',  321.120,  -3.458,  227.010,  -49.510,  1.03000,  0,  535.200,  0.00000,  0.14770,  0.00000,  0.00000,  1.00000,  1,  100.0,  446.000,  133.800
6146,  '1',  321.120,  -3.687,  227.010,  -49.510,  1.03000,  0,  535.200,  0.00000,  0.11950,  0.00000,  0.00000,  1.00000,  1,  100.0,  446.000,  133.800
6147,  '1',  255.985,  -7.569,  474.390,  -103.450,  1.03000,  0,  1118.40,  0.00000,  0.10440,  0.00000,  0.00000,  1.00000,  1,  100.0,  932.000,  279.600
6148,  '1',  216.600,  -15.334,  367.500,  -80.140,  1.03000,  0,  866.400,  0.00000,  0.23830,  0.00000,  0.00000,  1.00000,  1,  100.0,  722.000,  216.600
6149,  '1',  216.600,  -28.266,  367.500,  -80.140,  1.03000,  0,  866.400,  0.00000,  0.12770,  0.00000,  0.00000,  1.00000,  1,  100.0,  722.000,  216.600
6164,  '1',  136.330,  -1.477,  119.640,  -26.090,  1.03000,  0,  282.060,  0.00000,  0.30070,  0.00000,  0.00000,  1.00000,  1,  100.0,  235.050,  70.520
6165,  '1',  136.330,  -1.900,  119.640,  -26.090,  1.03000,  0,  282.060,  0.00000,  0.18390,  0.00000,  0.00000,  1.00000,  1,  100.0,  235.050,  70.520
6166,  '1',  136.330,  -3.614,  119.640,  -26.090,  1.03000,  0,  282.060,  0.00000,  0.25100,  0.00000,  0.00000,  1.00000,  1,  100.0,  235.050,  70.520
6167,  '1',  136.330,  -1.886,  119.640,  -26.090,  1.03000,  0,  282.060,  0.00000,  0.13970,  0.00000,  0.00000,  1.00000,  1,  100.0,  235.050,  70.520
6243,  '1',  106.140,  26.170,  93.150,  -20.310,  1.04000,  0,  219.600,  0.00000,  0.28800,  0.00000,  0.00000,  1.00000,  1,  100.0,  183.000,  54.900
6244,  '1',  214.560,  31.627,  151.680,  -33.080,  1.04000,  0,  357.600,  0.00000,  0.12500,  0.00000,  0.00000,  1.00000,  1,  100.0,  298.000,  89.400
6245,  '1',  214.560,  36.726,  151.680,  -33.080,  1.04000,  0,  357.600,  0.00000,  0.24960,  0.00000,  0.00000,  1.00000,  1,  100.0,  298.000,  89.400
6246,  '1',  214.560,  70.259,  151.680,  -33.080,  1.04000,  0,  357.600,  0.00000,  0.16990,  0.00000,  0.00000,  1.00000,  1,  100.0,  298.000,  89.400
6247,  '1',  106.330,  57.837,  93.320,  -20.350,  1.04000,  0,  220.000,  0.00000,  0.11730,  0.00000,  0.00000,  1.00000,  1,  100.0,  183.330,  55.000
6248,  '1',  106.330,  29.102,  93.320,  -20.350,  1.04000,  0,  220.000,  0.00000,  0.27550,  0.00000,  0.00000,  1.00000,  1,  100.0,  183.330,  55.000
6249,  '1',  106.330,  19.613,  93.320,  -20.350,  1.04000,  0,  220.000,  0.00000,  0.17480,  0.00000,  0.00000,  1.00000,  1,  100.0,  183.330,  55.000
6257,  '1',  112.520,  -21.530,  98.750,  -21.530,  1.02000,  0,  232.800,  0.00000,  0.15520,  0.00000,  0.00000,  1.00000,  1,  100.0,  194.000,  58.200
6258,  '1',  112.520,  -21.530,  98.750,  -21.530,  1.02000,  0,  232.800,  0.00000,  0.26310,  0.00000,  0.00000,  1.00000,  1,  100.0,  194.000,  58.200
6260,  '1',  149.060,  -28.530,  130.810,  -28.530,  1.02000,  0,  308.400,  0.00000,  0.11970,  0.00000,  0.00000,  1.00000,  1,  100.0,  257.000,  77.100
6295,  '1',  119.610,  -22.890,  104.970,  -22.890,  1.02000,  0,  247.480,  0.00000,  0.21970,  0.00000,  0.00000,  1.00000,  1,  100.0,  206.230,  61.870
6296,  '1',  119.610,  -22.890,  104.970,  -22.890,  1.02000,  0,  247.480,  0.00000,  0.25670,  0.00000,  0.00000,  1.00000,  1,  100.0,  206.230,  61.870
6297,  '1',  119.630,  -22.890,  104.970,  -22.890,  1.02000,  0,  247.480,  0.00000,  0.14170,  0.00000,  0.00000,  1.00000,  1,  100.0,  206.230,  61.900
6302,  '1',  143.410,  -27.440,  125.850,  -27.440,  1.00000,  0,  296.700,  0.00000,  0.25960,  0.00000,  0.00000,  1.00000,  1,  100.0,  247.250,  74.180
6303,  '1',  143.410,  -27.440,  125.850,  -27.440,  1.00000,  0,  296.700,  0.00000,  0.27270,  0.00000,  0.00000,  1.00000,  1,  100.0,  247.250,  74.180
6304,  '1',  143.410,  -27.440,  125.850,  -27.440,  1.00000,  0,  296.700,  0.00000,  0.11710,  0.00000,  0.00000,  1.00000,  1,  100.0,  247.250,  74.180
6305,  '1',  143.410,  -27.440,  125.850,  -27.440,  1.00000,  0,  296.700,  0.00000,  0.12770,  0.00000,  0.00000,  1.00000,  1,  100.0,  247.250,  74.180
6349,  '1',  421.080,  146.654,  369.540,  -80.580,  1.04000,  0,  871.200,  0.00000,  0.16290,  0.00000,  0.00000,  1.00000,  1,  100.0,  726.000,  217.800
7005,  '1',  94.540,  15.989,  82.970,  -18.090,  1.04000,  0,  195.600,  0.00000,  0.13000,  0.00000,  0.00000,  1.00000,  1,  100.0,  163.000,  48.900
7006,  '1',  94.540,  28.843,  82.970,  -18.090,  1.04000,  0,  195.600,  0.00000,  0.19150,  0.00000,  0.00000,  1.00000,  1,  100.0,  163.000,  48.900
7007,  '1',  94.540,  18.656,  82.970,  -18.090,  1.04000,  0,  195.600,  0.00000,  0.34300,  0.00000,  0.00000,  1.00000,  1,  100.0,  163.000,  48.900
7008,  '1',  94.540,  17.367,  82.970,  -18.090,  1.04000,  0,  195.600,  0.00000,  0.21570,  0.00000,  0.00000,  1.00000,  1,  100.0,  163.000,  48.900
7009,  '1',  94.540,  15.650,  82.970,  -18.090,  1.04000,  0,  195.600,  0.00000,  0.13060,  0.00000,  0.00000,  1.00000,  1,  100.0,  163.000,  48.900
7045,  '1',  109.300,  73.663,  95.920,  -20.920,  1.03000,  0,  226.140,  0.00000,  0.12400,  0.00000,  0.00000,  1.00000,  1,  100.0,  188.450,  56.530
7046,  '1',  109.300,  95.920,  95.920,  -20.920,  1.03000,  0,  226.140,  0.00000,  0.10650,  0.00000,  0.00000,  1.00000,  1,  100.0,  188.450,  56.530
7061,  '1',  34.470,  -2.820,  58.480,  -12.750,  1.00000,  0,  137.880,  0.00000,  0.12410,  0.00000,  0.00000,  1.00000,  1,  100.0,  114.900,  34.470
7062,  '1',  34.470,  -3.109,  58.480,  -12.750,  1.00000,  0,  137.880,  0.00000,  0.19500,  0.00000,  0.00000,  1.00000,  1,  100.0,  114.900,  34.470
7063,  '1',  34.470,  -2.997,  58.480,  -12.750,  1.00000,  0,  137.880,  0.00000,  0.15790,  0.00000,  0.00000,  1.00000,  1,  100.0,  114.900,  34.470
7064,  '1',  34.470,  -3.579,  58.480,  -12.750,  1.00000,  0,  137.880,  0.00000,  0.22800,  0.00000,  0.00000,  1.00000,  1,  100.0,  114.900,  34.470
7065,  '1',  34.470,  -3.475,  58.480,  -12.750,  1.00000,  0,  137.880,  0.00000,  0.22800,  0.00000,  0.00000,  1.00000,  1,  100.0,  114.900,  34.470
7066,  '1',  34.470,  -3.199,  58.480,  -12.750,  1.00000,  0,  137.880,  0.00000,  0.34800,  0.00000,  0.00000,  1.00000,  1,  100.0,  114.900,  34.470
7079,  '1',  164.630,  12.517,  116.380,  -25.380,  1.04000,  0,  274.380,  0.00000,  0.13630,  0.00000,  0.00000,  1.00000,  1,  100.0,  228.650,  68.590
7080,  '1',  164.630,  9.822,  116.380,  -25.380,  1.04000,  0,  274.380,  0.00000,  0.17160,  0.00000,  0.00000,  1.00000,  1,  100.0,  228.650,  68.590
7081,  '1',  164.630,  10.316,  116.380,  -25.380,  1.04000,  0,  274.380,  0.00000,  0.24350,  0.00000,  0.00000,  1.00000,  1,  100.0,  228.650,  68.590
7082,  '1',  164.630,  11.922,  116.380,  -25.380,  1.04000,  0,  274.380,  0.00000,  0.26430,  0.00000,  0.00000,  1.00000,  1,  100.0,  228.650,  68.590
7098,  '1',  2372.701,  1093.856,  498.380,  -111.050,  1.00000,  0,  3600.00,  0.00000,  0.28190,  0.00000,  0.00000,  1.00000,  1,  100.0,  1354.30,  406.290
7099,  '1',  1354.300,  342.643,  498.380,  -111.050,  1.00000,  0,  1625.16,  0.00000,  0.27430,  0.00000,  0.00000,  1.00000,  1,  100.0,  1354.30,  406.290
7107,  '1',  87.000,  38.606,  76.350,  -16.650,  1.04000,  0,  180.000,  0.00000,  0.29250,  0.00000,  0.00000,  1.00000,  1,  100.0,  150.000,  45.000
7110,  '1',  141.120,  21.575,  99.760,  -21.760,  1.04000,  0,  235.200,  0.00000,  0.13730,  0.00000,  0.00000,  1.00000,  1,  100.0,  196.000,  58.800
7111,  '1',  141.120,  20.991,  99.760,  -21.760,  1.04000,  0,  235.200,  0.00000,  0.19180,  0.00000,  0.00000,  1.00000,  1,  100.0,  196.000,  58.800
7112,  '1',  141.120,  33.300,  99.760,  -21.760,  1.04000,  0,  235.200,  0.00000,  0.17280,  0.00000,  0.00000,  1.00000,  1,  100.0,  196.000,  58.800
7113,  '1',  141.120,  17.834,  99.760,  -21.760,  1.04000,  0,  235.200,  0.00000,  0.16060,  0.00000,  0.00000,  1.00000,  1,  100.0,  196.000,  58.800
7114,  '1',  141.120,  35.230,  99.760,  -21.760,  1.04000,  0,  235.200,  0.00000,  0.20370,  0.00000,  0.00000,  1.00000,  1,  100.0,  196.000,  58.800
7115,  '1',  141.120,  35.489,  99.760,  -21.760,  1.04000,  0,  235.200,  0.00000,  0.17540,  0.00000,  0.00000,  1.00000,  1,  100.0,  196.000,  58.800
...
 0 /End of Generator data, Begin Branch data
1033,  1048,  '99',  0.24376,  1.38574,  0.00000,  0.00,  0.00,  0.00,  0.00000,  0.000,  0.00000,  0.00000,  0.00000,  0.00000,  1
1033,  1049,  '99',  0.36802,  2.49151,  0.00000,  0.00,  0.00,  0.00,  0.00000,  0.000,  0.00000,  0.00000,  0.00000,  0.00000,  1
1033,  1053,  '99',  0.28012,  1.86183,  0.00000,  0.00,  0.00,  0.00,  0.00000,  0.000,  0.00000,  0.00000,  0.00000,  0.00000,  1
1033,  1081,  '99',  0.00295,  0.03049,  0.00000,  0.00,  0.00,  0.00,  0.00000,  0.000,  0.00000,  0.00000,  0.00000,  0.00000,  1
1033,  3045,  '99',  0.12807,  3.21302,  0.00000,  0.00,  0.00,  0.00,  0.00000,  0.000,  0.00000,  0.00000,  0.00000,  0.00000,  1
1033,  3048,  '99',  0.12400,  0.92811,  0.00000,  0.00,  0.00,  0.00,  0.00000,  0.000,  0.00000,  0.00000,  0.00000,  0.00000,  1
1033,  3055,  '99',  0.22241,  2.92979,  0.00000,  0.00,  0.00,  0.00,  0.00000,  0.000,  0.00000,  0.00000,  0.00000,  0.00000,  1
1033,  4026,  '99',  0.18225,  3.70938,  0.00000,  0.00,  0.00,  0.00,  0.00000,  0.000,  0.00000,  0.00000,  0.00000,  0.00000,  1
1033,  4115,  '99',  0.11976,  2.57120,  0.00000,  0.00,  0.00,  0.00,  0.00000,  0.000,  0.00000,  0.00000,  0.00000,  0.00000,  1
1033,  4116,  '99',  0.15251,  2.70414,  0.00000,  0.00,  0.00,  0.00,  0.00000,  0.000,  0.00000,  0.00000,  0.00000,  0.00000,  1
1048,  1049,  '99',  0.00219,  0.33432,  0.00000,  0.00,  0.00,  0.00,  0.00000,  0.000,  0.00000,  0.00000,  0.00000,  0.00000,  1
1048,  1053,  '99',  0.00231,  0.24992,  0.00000,  0.00,  0.00,  0.00,  0.00000,  0.000,  0.00000,  0.00000,  0.00000,  0.00000,  1
1048,  1072,  '99',  0.81602,  4.30694,  0.00000,  0.00,  0.00,  0.00,  0.00000,  0.000,  0.00000,  0.00000,  0.00000,  0.00000,  1
1048,  1076,  '99',  0.38767,  2.49718,  0.00000,  0.00,  0.00,  0.00,  0.00000,  0.000,  0.00000,  0.00000,  0.00000,  0.00000,  1
1048,  1081,  '99',  0.46786,  3.01743,  0.00000,  0.00,  0.00,  0.00,  0.00000,  0.000,  0.00000,  0.00000,  0.00000,  0.00000,  1
1048,  3048,  '99',  0.33481,  2.02851,  0.00000,  0.00,  0.00,  0.00,  0.00000,  0.000,  0.00000,  0.00000,  0.00000,  0.00000,  1
1049,  1053,  '99',  -0.00816,  0.44730,  0.00000,  0.00,  0.00,  0.00,  0.00000,  0.000,  0.00000,  0.00000,  0.00000,  0.00000,  1
1049,  1076,  '99',  0.57085,  4.48730,  0.00000,  0.00,  0.00,  0.00,  0.00000,  0.000,  0.00000,  0.00000,  0.00000,  0.00000,  1
1049,  3048,  '99',  0.49931,  3.64610,  0.00000,  0.00,  0.00,  0.00,  0.00000,  0.000,  0.00000,  0.00000,  0.00000,  0.00000,  1
1053,  1076,  '99',  0.43576,  3.35340,  0.00000,  0.00,  0.00,  0.00,  0.00000,  0.000,  0.00000,  0.00000,  0.00000,  0.00000,  1
1053,  1081,  '99',  0.00298,  0.02978,  0.00000,  0.00,  0.00,  0.00,  0.00000,  0.000,  0.00000,  0.00000,  0.00000,  0.00000,  1
1053,  3048,  '99',  0.38059,  2.72469,  0.00000,  0.00,  0.00,  0.00,  0.00000,  0.000,  0.00000,  0.00000,  0.00000,  0.00000,  1
1072,  1073,  '99',  0.13272,  1.22152,  0.00000,  0.00,  0.00,  0.00,  0.00000,  0.000,  0.00000,  0.00000,  0.00000,  0.00000,  1
1072,  1074,  '99',  0.06409,  1.17066,  0.00000,  0.00,  0.00,  0.00,  0.00000,  0.000,  0.00000,  0.00000,  0.00000,  0.00000,  1
1072,  1075,  '99',  0.04310,  0.93703,  0.00000,  0.00,  0.00,  0.00,  0.00000,  0.000,  0.00000,  0.00000,  0.00000,  0.00000,  1
1072,  1076,  '99',  0.01723,  0.46418,  0.00000,  0.00,  0.00,  0.00,  0.00000,  0.000,  0.00000,  0.00000,  0.00000,  0.00000,  1
1072,  1077,  '99',  0.06997,  1.13243,  0.00000,  0.00,  0.00,  0.00,  0.00000,  0.000,  0.00000,  0.00000,  0.00000,  0.00000,  1
1072,  1081,  '99',  0.02270,  0.60722,  0.00000,  0.00,  0.00,  0.00,  0.00000,  0.000,  0.00000,  0.00000,  0.00000,  0.00000,  1
1072,  3048,  '99',  0.01784,  0.46158,  0.00000,  0.00,  0.00,  0.00,  0.00000,  0.000,  0.00000,  0.00000,  0.00000,  0.00000,  1
1073,  1074,  '99',  0.16529,  1.78023,  0.00000,  0.00,  0.00,  0.00,  0.00000,  0.000,  0.00000,  0.00000,  0.00000,  0.00000,  1
1073,  1075,  '99',  0.11979,  1.42542,  0.00000,  0.00,  0.00,  0.00,  0.00000,  0.000,  0.00000,  0.00000,  0.00000,  0.00000,  1
1073,  1076,  '99',  0.05307,  0.70635,  0.00000,  0.00,  0.00,  0.00,  0.00000,  0.000,  0.00000,  0.00000,  0.00000,  0.00000,  1
1073,  1077,  '99',  0.17204,  1.72162,  0.00000,  0.00,  0.00,  0.00,  0.00000,  0.000,  0.00000,  0.00000,  0.00000,  0.00000,  1
1073,  1081,  '99',  0.06967,  0.92401,  0.00000,  0.00,  0.00,  0.00,  0.00000,  0.000,  0.00000,  0.00000,  0.00000,  0.00000,  1
1073,  3048,  '99',  0.05384,  0.70235,  0.00000,  0.00,  0.00,  0.00,  0.00000,  0.000,  0.00000,  0.00000,  0.00000,  0.00000,  1
1074,  1075,  '99',  0.04137,  1.36428,  0.00000,  0.00,  0.00,  0.00,  0.00000,  0.000,  0.00000,  0.00000,  0.00000,  0.00000,  1
1074,  1076,  '99',  0.01451,  0.67573,  0.00000,  0.00,  0.00,  0.00,  0.00000,  0.000,  0.00000,  0.00000,  0.00000,  0.00000,  1
1074,  1077,  '99',  0.07603,  1.64918,  0.00000,  0.00,  0.00,  0.00,  0.00000,  0.000,  0.00000,  0.00000,  0.00000,  0.00000,  1
1074,  1081,  '99',  0.01921,  0.88397,  0.00000,  0.00,  0.00,  0.00,  0.00000,  0.000,  0.00000,  0.00000,  0.00000,  0.00000,  1
1074,  3048,  '99',  0.01545,  0.67196,  0.00000,  0.00,  0.00,  0.00,  0.00000,  0.000,  0.00000,  0.00000,  0.00000,  0.00000,  1
1075,  1076,  '99',  0.00688,  0.54072,  0.00000,  0.00,  0.00,  0.00,  0.00000,  0.000,  0.00000,  0.00000,  0.00000,  0.00000,  1
1075,  1077,  '99',  0.04930,  1.31995,  0.00000,  0.00,  0.00,  0.00,  0.00000,  0.000,  0.00000,  0.00000,  0.00000,  0.00000,  1
1075,  1081,  '99',  0.00919,  0.70735,  0.00000,  0.00,  0.00,  0.00,  0.00000,  0.000,  0.00000,  0.00000,  0.00000,  0.00000,  1
1075,  3048,  '99',  0.00766,  0.53771,  0.00000,  0.00,  0.00,  0.00,  0.00000,  0.000,  0.00000,  0.00000,  0.00000,  0.00000,  1
1076,  1077,  '99',  0.01863,  0.65382,  0.00000,  0.00,  0.00,  0.00,  0.00000,  0.000,  0.00000,  0.00000,  0.00000,  0.00000,  1
1076,  1081,  '99',  0.00145,  0.35030,  0.00000,  0.00,  0.00,  0.00,  0.00000,  0.000,  0.00000,  0.00000,  0.00000,  0.00000,  1
1076,  3048,  '99',  0.00144,  0.26629,  0.00000,  0.00,  0.00,  0.00,  0.00000,  0.000,  0.00000,  0.00000,  0.00000,  0.00000,  1
1077,  1081,  '99',  0.02459,  0.85529,  0.00000,  0.00,  0.00,  0.00,  0.00000,  0.000,  0.00000,  0.00000,  0.00000,  0.00000,  1
1077,  3048,  '99',  0.01951,  0.65016,  0.00000,  0.00,  0.00,  0.00,  0.00000,  0.000,  0.00000,  0.00000,  0.00000,  0.00000,  1
1081,  3045,  '99',  0.03414,  0.78081,  0.00000,  0.00,  0.00,  0.00,  0.00000,  0.000,  0.00000,  0.00000,  0.00000,  0.00000,  1
1081,  3048,  '99',  0.01162,  0.17308,  0.00000,  0.00,  0.00,  0.00,  0.00000,  0.000,  0.00000,  0.00000,  0.00000,  0.00000,  1
1081,  3055,  '99',  0.05144,  0.75060,  0.00000,  0.00,  0.00,  0.00,  0.00000,  0.000,  0.00000,  0.00000,  0.00000,  0.00000,  1
1081,  3056,  '99',  0.09109,  1.41786,  0.00000,  0.00,  0.00,  0.00,  0.00000,  0.000,  0.00000,  0.00000,  0.00000,  0.00000,  1
1081,  3057,  '99',  0.10271,  1.37614,  0.00000,  0.00,  0.00,  0.00,  0.00000,  0.000,  0.00000,  0.00000,  0.00000,  0.00000,  1
1081,  3081,  '99',  0.54416,  3.56135,  0.00000,  0.00,  0.00,  0.00,  0.00000,  0.000,  0.00000,  0.00000,  0.00000,  0.00000,  1
1081,  3084,  '99',  0.26420,  3.19644,  0.00000,  0.00,  0.00,  0.00,  0.00000,  0.000,  0.00000,  0.00000,  0.00000,  0.00000,  1
1081,  5236,  '99',  0.62144,  3.83239,  0.00000,  0.00,  0.00,  0.00,  0.00000,  0.000,  0.00000,  0.00000,  0.00000,  0.00000,  1
1081,  5399,  '99',  0.24366,  2.80058,  0.00000,  0.00,  0.00,  0.00,  0.00000,  0.000,  0.00000,  0.00000,  0.00000,  0.00000,  1
2001,  -2022,  '1',  0.00839,  0.03697,  0.01721,  187.00,  0.00,  0.00,  0.00000,  0.000,  0.00000,  0.00000,  0.00000,  0.00000,  1
2001,  -2027,  '1',  0.00955,  0.04062,  0.02032,  187.00,  0.00,  0.00,  0.00000,  0.000,  0.00000,  0.00000,  0.00000,  0.00000,  1
2001,  12001,  '1',  0.00000,  0.02914,  0.00000,  41.18,  0.00,  0.00,  1.00000,  -1.226,  0.00000,  0.00000,  0.00000,  0.00000,  1
2003,  2002,  '1',  0.00030,  0.01986,  0.00000,  981.00,  0.00,  0.00,  1.00000,  0.000,  0.00000,  0.00000,  0.00000,  0.00000,  1
2004,  2002,  '1',  0.00022,  0.01466,  0.00000,  635.00,  0.00,  0.00,  1.00000,  0.000,  0.00000,  0.00000,  0.00000,  0.00000,  1
2005,  2002,  '1',  0.00033,  0.01714,  0.00000,  645.00,  0.00,  0.00,  1.00000,  0.000,  0.00000,  0.00000,  0.00000,  0.00000,  1
2006,  2002,  '1',  0.00036,  0.02679,  0.00000,  636.00,  0.00,  0.00,  1.00000,  0.000,  0.00000,  0.00000,  0.00000,  0.00000,  1
2002,  -2021,  '1',  0.00097,  0.01175,  0.78032,  2295.00,  0.00,  0.00,  0.00000,  0.000,  0.00000,  0.00000,  0.00000,  0.00000,  1
2002,  2101,  '1',  0.00031,  0.00370,  0.24573,  2020.00,  0.00,  0.00,  0.00000,  0.000,  0.00000,  0.00000,  0.00000,  0.00000,  1
2003,  -2038,  '1',  0.00353,  0.02067,  0.01032,  251.00,  0.00,  0.00,  0.00000,  0.000,  0.00000,  0.00000,  0.00000,  0.00000,  1
2003,  2047,  '1',  0.00130,  0.00990,  0.00520,  310.00,  0.00,  0.00,  0.00000,  0.000,  0.00000,  0.00000,  0.00000,  0.00000,  1
2007,  2114,  '1',  0.00888,  0.05207,  0.02600,  251.00,  0.00,  0.00,  0.00000,  0.000,  0.00000,  0.00000,  0.00000,  0.00000,  1
2007,  2122,  '1',  0.00861,  0.03661,  0.01831,  187.00,  0.00,  0.00,  0.00000,  0.000,  0.00000,  0.00000,  0.00000,  0.00000,  1
2007,  12007,  '1',  0.00000,  0.20184,  0.00000,  5.95,  0.00,  0.00,  1.00000,  -1.214,  0.00000,  0.00000,  0.00000,  0.00000,  1
2009,  2049,  '1',  0.01224,  0.07176,  0.03583,  251.00,  0.00,  0.00,  0.00000,  0.000,  0.00000,  0.00000,  0.00000,  0.00000,  1
2009,  2082,  '1',  0.00735,  0.03126,  0.01563,  187.00,  0.00,  0.00,  0.00000,  0.000,  0.00000,  0.00000,  0.00000,  0.00000,  1
2009,  -2109,  '1',  0.00725,  0.03084,  0.01542,  250.00,  0.00,  0.00,  0.00000,  0.000,  0.00000,  0.00000,  0.00000,  0.00000,  1
2009,  12009,  '1',  0.00000,  0.02701,  0.00000,  44.43,  0.00,  0.00,  1.00000,  -1.200,  0.00000,  0.00000,  0.00000,  0.00000,  1
2013,  2042,  '99',  -0.14251,  1.84947,  0.00000,  0.00,  0.00,  0.00,  0.00000,  0.000,  0.00000,  0.00000,  0.00000,  0.00000,  1
...